* TL431 in "zener diode style"
* CONNECTIONS:   ANODE
*                | CATHODE
*                | |
.SUBCKT TL431    A K 
*
  D1 A K D_TL431

.MODEL D_TL431 D(Is=20f Rs=.05 Cjo=175p M=.55 nbv=1.7 bv=2.495 Vj=.75 Isr=1.86n Nr=2 Ibv=2m Ibvl=1m Nbvl=15 Tbv1=-21.3u Vpk=4.7 mfg=TI type=Zener)
.ENDS